CM 
CE
SY LD=0.25
SY LR=0.25*1.0
SY SDR=0.25
GW	1	11	0	-LD	0	0	LD	0	0.003
GW	2	11	SDR	-LR	0	SDR	LR	0	0.003
GE	0
GN	-1
EK
EX	0	1	6	0	1	0	0
FR	0	0	0	0	299.8	0
EN
